NW11_EXP_POWERS.CSV
Element, Terminal, P(kW), Q(kvar),  P_Normal, Q_Normal, P_Emergency, Q_Emergency
"Line.L_BSB_MT_2354"    ,   1,        -8.4,        -3.8,         0.0,         0.0,         0.0,         0.0
"Line.L_BSB_MT_2354"    ,   2,         8.4,         3.8
"Line.L_BSB_MT_2355"    ,   1,       112.8,        51.0,         0.0,         0.0,         0.0,         0.0
"Line.L_BSB_MT_2355"    ,   2,      -112.8,       -51.0
"Line.L_BSB_MT_2704"    ,   1,        98.0,        45.1,         0.0,         0.0,         0.0,         0.0
"Line.L_BSB_MT_2704"    ,   2,       -98.0,       -45.1
"Line.L_BSB_MT_2706"    ,   1,       -28.7,       -13.0,         0.0,         0.0,         0.0,         0.0
"Line.L_BSB_MT_2706"    ,   2,        28.7,        13.0
"Line.L_BSB_MT_2035"    ,   1,         8.4,         3.8,         0.0,         0.0,         0.0,         0.0
"Line.L_BSB_MT_2035"    ,   2,        -8.4,        -3.8
"Line.L_BSB_MT_2036"    ,   1,         8.4,         3.8,         0.0,         0.0,         0.0,         0.0
"Line.L_BSB_MT_2036"    ,   2,        -8.4,        -3.8
"Line.L_BSB_MT_2037"    ,   1,         8.4,         3.8,         0.0,         0.0,         0.0,         0.0
"Line.L_BSB_MT_2037"    ,   2,        -8.4,        -3.8
"Line.L_BSB_MT_2038"    ,   1,         8.4,         3.8,         0.0,         0.0,         0.0,         0.0
"Line.L_BSB_MT_2038"    ,   2,        -8.4,        -3.8
"Line.L_BSB_MT_2040"    ,   1,        20.9,         9.5,         0.0,         0.0,         0.0,         0.0
"Line.L_BSB_MT_2040"    ,   2,       -20.9,        -9.5
"Line.L_BSB_MT_20401"   ,   1,       -20.9,        -9.5,         0.0,         0.0,         0.0,         0.0
"Line.L_BSB_MT_20401"   ,   2,        20.9,         9.5
"Line.L_BSB_MT_2041"    ,   1,        20.9,         9.5,         0.0,         0.0,         0.0,         0.0
"Line.L_BSB_MT_2041"    ,   2,       -20.9,        -9.5
"Line.L_BSB_MT_2042"    ,   1,        20.9,         9.5,         0.0,         0.0,         0.0,         0.0
"Line.L_BSB_MT_2042"    ,   2,       -20.9,        -9.5
"Line.L_BSB_MT_2043"    ,   1,        20.9,         9.5,         0.0,         0.0,         0.0,         0.0
"Line.L_BSB_MT_2043"    ,   2,       -20.9,        -9.5
"Line.L_BSB_MT_2044"    ,   1,        20.9,         9.5,         0.0,         0.0,         0.0,         0.0
"Line.L_BSB_MT_2044"    ,   2,       -20.9,        -9.5
"Line.L_BSB_MT_2045"    ,   1,        20.9,         9.5,         0.0,         0.0,         0.0,         0.0
"Line.L_BSB_MT_2045"    ,   2,       -20.9,        -9.5
"Line.L_BSB_MT_2046"    ,   1,        20.9,         9.5,         0.0,         0.0,         0.0,         0.0
"Line.L_BSB_MT_2046"    ,   2,       -20.9,        -9.5
"Line.L_BSB_MT_2047"    ,   1,        25.1,        11.3,         0.0,         0.0,         0.0,         0.0
"Line.L_BSB_MT_2047"    ,   2,       -25.1,       -11.3
"Line.L_BSB_MT_2048"    ,   1,       382.7,       172.3,         0.0,         0.0,         0.0,         0.0
"Line.L_BSB_MT_2048"    ,   2,      -382.7,      -172.3
"Line.L_BSB_MT_2049"    ,   1,      -382.7,      -172.3,         0.0,         0.0,         0.0,         0.0
"Line.L_BSB_MT_2049"    ,   2,       382.7,       172.3
"Line.L_BSB_MT_2050"    ,   1,      -340.9,      -153.4,         0.0,         0.0,         0.0,         0.0
"Line.L_BSB_MT_2050"    ,   2,       340.9,       153.4
"Line.L_BSB_MT_7575"    ,   1,       112.8,        51.0,         0.0,         0.0,         0.0,         0.0
"Line.L_BSB_MT_7575"    ,   2,      -112.8,       -51.0
"Line.L_BSB_MT_7579"    ,   1,       124.0,        56.1,         0.0,         0.0,         0.0,         0.0
"Line.L_BSB_MT_7579"    ,   2,      -124.0,       -56.1
"Line.L_BSB_MT_6303"    ,   1,         0.0,         0.0,         0.0,         0.0,         0.0,         0.0
"Line.L_BSB_MT_6303"    ,   2,        -0.0,        -0.0
"Line.L_BSB_MT_6304"    ,   1,        28.7,        13.0,         0.0,         0.0,         0.0,         0.0
"Line.L_BSB_MT_6304"    ,   2,       -28.7,       -13.0
"Line.L_BSB_MT_6305"    ,   1,        62.7,        28.4,         0.0,         0.0,         0.0,         0.0
"Line.L_BSB_MT_6305"    ,   2,       -62.7,       -28.4
"Line.L_BSB_MT_63051"   ,   1,        62.7,        28.4,         0.0,         0.0,         0.0,         0.0
"Line.L_BSB_MT_63051"   ,   2,       -62.7,       -28.4
"Line.L_BSB_MT_3728"    ,   1,         0.0,         0.0,         0.0,         0.0,         0.0,         0.0
"Line.L_BSB_MT_3728"    ,   2,        -0.0,        -0.0
"Line.L_BSB_MT_3439"    ,   1,        98.0,        45.1,         0.0,         0.0,         0.0,         0.0
"Line.L_BSB_MT_3439"    ,   2,       -98.0,       -45.1
"Line.L_BSB_MT_3445"    ,   1,       160.7,        73.4,         0.0,         0.0,         0.0,         0.0
"Line.L_BSB_MT_3445"    ,   2,      -160.7,       -73.4
"Line.L_BSB_MT_2051"    ,   1,      -340.9,      -153.4,         0.0,         0.0,         0.0,         0.0
"Line.L_BSB_MT_2051"    ,   2,       340.9,       153.4
"Line.L_BSB_MT_7581"    ,   1,      -432.0,      -201.4,         0.0,         0.0,         0.0,         0.0
"Line.L_BSB_MT_7581"    ,   2,       432.0,       201.4
"Line.L_BSB_MT_7624"    ,   1,        -0.0,        -0.0,         0.0,         0.0,         0.0,         0.0
"Line.L_BSB_MT_7624"    ,   2,         0.0,         0.0
"Line.L_BSB_MT_7626"    ,   1,        34.0,        15.4,         0.0,         0.0,         0.0,         0.0
"Line.L_BSB_MT_7626"    ,   2,       -34.0,       -15.4
"Line.L_BSB_MT_7663"    ,   1,        41.8,        18.9,         0.0,         0.0,         0.0,         0.0
"Line.L_BSB_MT_7663"    ,   2,       -41.8,       -18.9
"Line.L_BSB_MT_5378"    ,   1,     -1288.4,      -594.7,         0.0,         0.0,         0.0,         0.0
"Line.L_BSB_MT_5378"    ,   2,      1288.4,       594.7
"Line.L_BSB_MT_2083"    ,   1,       -87.8,       -39.7,         0.0,         0.0,         0.0,         0.0
"Line.L_BSB_MT_2083"    ,   2,        87.8,        39.7
"Line.L_BSB_MT_2084"    ,   1,       -87.8,       -39.7,         0.0,         0.0,         0.0,         0.0
"Line.L_BSB_MT_2084"    ,   2,        87.8,        39.7
"Line.L_BSB_MT_2085"    ,   1,        62.7,        28.4,         0.0,         0.0,         0.0,         0.0
"Line.L_BSB_MT_2085"    ,   2,       -62.7,       -28.4
"Line.L_BSB_MT_2086"    ,   1,       -25.1,       -11.3,         0.0,         0.0,         0.0,         0.0
"Line.L_BSB_MT_2086"    ,   2,        25.1,        11.3
"Line.L_BSB_MT_2087"    ,   1,       -25.1,       -11.3,         0.0,         0.0,         0.0,         0.0
"Line.L_BSB_MT_2087"    ,   2,        25.1,        11.3
"Line.L_BSB_MT_2088"    ,   1,       -25.1,       -11.3,         0.0,         0.0,         0.0,         0.0
"Line.L_BSB_MT_2088"    ,   2,        25.1,        11.3
"Line.L_BSB_MT_7810"    ,   1,       366.4,       165.7,         0.0,         0.0,         0.0,         0.0
"Line.L_BSB_MT_7810"    ,   2,      -366.4,      -165.7
"Line.L_BSB_MT_2743"    ,   1,        62.7,        28.4,         0.0,         0.0,         0.0,         0.0
"Line.L_BSB_MT_2743"    ,   2,       -62.7,       -28.4
"Line.L_BSB_MT_2744"    ,   1,        -0.0,        -0.0,         0.0,         0.0,         0.0,         0.0
"Line.L_BSB_MT_2744"    ,   2,         0.0,         0.0
"Line.L_BSB_MT_2745"    ,   1,        -0.0,        -0.0,         0.0,         0.0,         0.0,         0.0
"Line.L_BSB_MT_2745"    ,   2,         0.0,         0.0
"Line.L_BSB_MT_2746"    ,   1,        -0.0,        -0.0,         0.0,         0.0,         0.0,         0.0
"Line.L_BSB_MT_2746"    ,   2,         0.0,         0.0
"Line.L_BSB_MT_2747"    ,   1,        -0.0,        -0.0,         0.0,         0.0,         0.0,         0.0
"Line.L_BSB_MT_2747"    ,   2,         0.0,         0.0
"Line.L_BSB_MT_2748"    ,   1,        -0.0,        -0.0,         0.0,         0.0,         0.0,         0.0
"Line.L_BSB_MT_2748"    ,   2,         0.0,         0.0
"Line.L_BSB_MT_2749"    ,   1,        -0.0,        -0.0,         0.0,         0.0,         0.0,         0.0
"Line.L_BSB_MT_2749"    ,   2,         0.0,         0.0
"Line.L_BSB_MT_2750"    ,   1,         0.0,        -0.0,         0.0,         0.0,         0.0,         0.0
"Line.L_BSB_MT_2750"    ,   2,        -0.0,         0.0
"Line.L_BSB_MT_6543"    ,   1,        27.8,         6.6,         0.0,         0.0,         0.0,         0.0
"Line.L_BSB_MT_6543"    ,   2,       -27.8,        -6.6
"Line.L_BSB_MT_6556"    ,   1,        73.8,        33.4,         0.0,         0.0,         0.0,         0.0
"Line.L_BSB_MT_6556"    ,   2,       -73.8,       -33.4
"Line.L_BSB_MT_7870"    ,   1,         0.0,         0.0,         0.0,         0.0,         0.0,         0.0
"Line.L_BSB_MT_7870"    ,   2,        -0.0,        -0.0
"Line.L_BSB_MT_5431"    ,   1,        -0.0,        -0.0,         0.0,         0.0,         0.0,         0.0
"Line.L_BSB_MT_5431"    ,   2,         0.0,         0.0
"Line.L_BSB_MT_5432"    ,   1,        -0.0,         0.0,         0.0,         0.0,         0.0,         0.0
"Line.L_BSB_MT_5432"    ,   2,        -0.0,        -0.0
"Line.L_BSB_MT_5531"    ,   1,       112.8,        51.0,         0.0,         0.0,         0.0,         0.0
"Line.L_BSB_MT_5531"    ,   2,      -112.8,       -51.0
"Line.L_BSB_MT_5532"    ,   1,         8.4,         3.8,         0.0,         0.0,         0.0,         0.0
"Line.L_BSB_MT_5532"    ,   2,        -8.4,        -3.8
"Line.L_BSB_MT_5533"    ,   1,        20.9,         9.5,         0.0,         0.0,         0.0,         0.0
"Line.L_BSB_MT_5533"    ,   2,       -20.9,        -9.5
"Line.L_BSB_MT_5534"    ,   1,       -87.8,       -39.7,         0.0,         0.0,         0.0,         0.0
"Line.L_BSB_MT_5534"    ,   2,        87.8,        39.7
"Line.L_BSB_MT_5537"    ,   1,        -0.0,        -0.0,         0.0,         0.0,         0.0,         0.0
"Line.L_BSB_MT_5537"    ,   2,         0.0,         0.0
"Line.L_BSB_MT_5538"    ,   1,        -0.0,         0.0,         0.0,         0.0,         0.0,         0.0
"Line.L_BSB_MT_5538"    ,   2,         0.0,        -0.0
"Line.L_BSB_MT_5545"    ,   1,       349.7,       158.2,         0.0,         0.0,         0.0,         0.0
"Line.L_BSB_MT_5545"    ,   2,      -349.7,      -158.2
"Line.L_BSB_MT_5546"    ,   1,      -217.3,       -98.3,         0.0,         0.0,         0.0,         0.0
"Line.L_BSB_MT_5546"    ,   2,       217.3,        98.3
"Line.L_BSB_MT_5548"    ,   1,       167.2,        75.6,         0.0,         0.0,         0.0,         0.0
"Line.L_BSB_MT_5548"    ,   2,      -167.2,       -75.6
"Line.L_BSB_MT_5552"    ,   1,       440.3,       199.1,         0.0,         0.0,         0.0,         0.0
"Line.L_BSB_MT_5552"    ,   2,      -440.3,      -199.1
"Line.L_BSB_MT_5553"    ,   1,        35.3,        16.7,         0.0,         0.0,         0.0,         0.0
"Line.L_BSB_MT_5553"    ,   2,       -35.3,       -16.7
"Line.L_BSB_MT_5554"    ,   1,       722.7,       338.8,         0.0,         0.0,         0.0,         0.0
"Line.L_BSB_MT_5554"    ,   2,      -722.7,      -338.8
"Line.L_BSB_MT_5555"    ,   1,      -139.4,       -69.0,         0.0,         0.0,         0.0,         0.0
"Line.L_BSB_MT_5555"    ,   2,       139.4,        69.0
"Line.L_BSB_MT_5556"    ,   1,        -0.0,        -0.0,         0.0,         0.0,         0.0,         0.0
"Line.L_BSB_MT_5556"    ,   2,        -0.0,         0.0
"Line.L_BSB_MT_5557"    ,   1,      1433.0,       654.9,         0.0,         0.0,         0.0,         0.0
"Line.L_BSB_MT_5557"    ,   2,     -1432.9,      -654.8
"Line.L_BSB_MT_2016"    ,   1,      -217.3,       -98.3,         0.0,         0.0,         0.0,         0.0
"Line.L_BSB_MT_2016"    ,   2,       217.3,        98.3
"Line.L_BSB_MT_2018"    ,   1,      1583.5,       723.0,         0.0,         0.0,         0.0,         0.0
"Line.L_BSB_MT_2018"    ,   2,     -1583.5,      -723.0
"Line.L_BSB_MT_2019"    ,   1,        -8.4,        -3.8,         0.0,         0.0,         0.0,         0.0
"Line.L_BSB_MT_2019"    ,   2,         8.4,         3.8
"Line.L_BSB_MT_2863"    ,   1,        34.0,        15.4,         0.0,         0.0,         0.0,         0.0
"Line.L_BSB_MT_2863"    ,   2,       -34.0,       -15.4
"Line.L_BSB_MT_2864"    ,   1,        34.0,        15.4,         0.0,         0.0,         0.0,         0.0
"Line.L_BSB_MT_2864"    ,   2,       -34.0,       -15.4
"Line.L_BSB_MT_2870"    ,   1,       -28.7,       -13.0,         0.0,         0.0,         0.0,         0.0
"Line.L_BSB_MT_2870"    ,   2,        28.7,        13.0
"Line.L_BSB_MT_2871"    ,   1,        28.7,        13.0,         0.0,         0.0,         0.0,         0.0
"Line.L_BSB_MT_2871"    ,   2,       -28.7,       -13.0
"Line.L_BSB_MT_2872"    ,   1,        28.7,        13.0,         0.0,         0.0,         0.0,         0.0
"Line.L_BSB_MT_2872"    ,   2,       -28.7,       -13.0
"Line.L_BSB_MT_2873"    ,   1,        34.0,        15.4,         0.0,         0.0,         0.0,         0.0
"Line.L_BSB_MT_2873"    ,   2,       -34.0,       -15.4
"Line.L_BSB_MT_2874"    ,   1,        34.0,        15.4,         0.0,         0.0,         0.0,         0.0
"Line.L_BSB_MT_2874"    ,   2,       -34.0,       -15.4
"Line.L_BSB_MT_2875"    ,   1,        34.0,        15.4,         0.0,         0.0,         0.0,         0.0
"Line.L_BSB_MT_2875"    ,   2,       -34.0,       -15.4
"Line.L_BSB_MT_2876"    ,   1,        34.0,        15.4,         0.0,         0.0,         0.0,         0.0
"Line.L_BSB_MT_2876"    ,   2,       -34.0,       -15.4
"Line.L_BSB_MT_28761"   ,   1,        34.0,        15.4,         0.0,         0.0,         0.0,         0.0
"Line.L_BSB_MT_28761"   ,   2,       -34.0,       -15.4
"Line.L_BSB_MT_2877"    ,   1,        -0.0,         0.0,         0.0,         0.0,         0.0,         0.0
"Line.L_BSB_MT_2877"    ,   2,         0.0,        -0.0
"Line.L_BSB_MT_28771"   ,   1,        -0.0,        -0.0,         0.0,         0.0,         0.0,         0.0
"Line.L_BSB_MT_28771"   ,   2,         0.0,         0.0
"Line.L_BSB_MT_2878"    ,   1,        -0.0,        -0.0,         0.0,         0.0,         0.0,         0.0
"Line.L_BSB_MT_2878"    ,   2,         0.0,         0.0
"Line.L_BSB_MT_2879"    ,   1,         0.0,         0.0,         0.0,         0.0,         0.0,         0.0
"Line.L_BSB_MT_2879"    ,   2,        -0.0,        -0.0
"Line.L_BSB_MT_2882"    ,   1,        11.1,         5.0,         0.0,         0.0,         0.0,         0.0
"Line.L_BSB_MT_2882"    ,   2,       -11.1,        -5.0
"Line.L_BSB_MT_2883"    ,   1,        11.1,         5.0,         0.0,         0.0,         0.0,         0.0
"Line.L_BSB_MT_2883"    ,   2,       -11.1,        -5.0
"Line.L_BSB_MT_2884"    ,   1,        11.1,         5.0,         0.0,         0.0,         0.0,         0.0
"Line.L_BSB_MT_2884"    ,   2,       -11.1,        -5.0
"Line.L_BSB_MT_2885"    ,   1,        11.1,         5.0,         0.0,         0.0,         0.0,         0.0
"Line.L_BSB_MT_2885"    ,   2,       -11.1,        -5.0
"Line.L_BSB_MT_2886"    ,   1,       -11.1,        -5.0,         0.0,         0.0,         0.0,         0.0
"Line.L_BSB_MT_2886"    ,   2,        11.1,         5.0
"Line.L_BSB_MT_2887"    ,   1,       -11.1,        -5.0,         0.0,         0.0,         0.0,         0.0
"Line.L_BSB_MT_2887"    ,   2,        11.1,         5.0
"Line.L_BSB_MT_2888"    ,   1,       -11.1,        -5.0,         0.0,         0.0,         0.0,         0.0
"Line.L_BSB_MT_2888"    ,   2,        11.1,         5.0
"Line.L_BSB_MT_2890"    ,   1,        28.7,        13.0,         0.0,         0.0,         0.0,         0.0
"Line.L_BSB_MT_2890"    ,   2,       -28.7,       -13.0
"Line.L_BSB_MT_2891"    ,   1,       -28.7,       -13.0,         0.0,         0.0,         0.0,         0.0
"Line.L_BSB_MT_2891"    ,   2,        28.7,        13.0
"Line.L_BSB_MT_6702"    ,   1,        73.8,        33.4,         0.0,         0.0,         0.0,         0.0
"Line.L_BSB_MT_6702"    ,   2,       -73.8,       -33.4
"Line.L_BSB_MT_6703"    ,   1,        73.8,        33.4,         0.0,         0.0,         0.0,         0.0
"Line.L_BSB_MT_6703"    ,   2,       -73.8,       -33.4
"Line.L_BSB_MT_6704"    ,   1,        73.8,        33.4,         0.0,         0.0,         0.0,         0.0
"Line.L_BSB_MT_6704"    ,   2,       -73.8,       -33.4
"Line.L_BSB_MT_6705"    ,   1,        73.8,        33.4,         0.0,         0.0,         0.0,         0.0
"Line.L_BSB_MT_6705"    ,   2,       -73.8,       -33.4
...
"Line.L_65590813"       ,   1,         0.0,         0.0,         0.0,         0.0,         0.0,         0.0
"Line.L_65590813"       ,   2,        -0.0,        -0.0
"Line.L_65590817"       ,   1,         0.0,         0.0,         0.0,         0.0,         0.0,         0.0
"Line.L_65590817"       ,   2,        -0.0,        -0.0
"Line.L_65590822"       ,   1,         0.0,         0.0,         0.0,         0.0,         0.0,         0.0
"Line.L_65590822"       ,   2,        -0.0,        -0.0
"Line.L_65590824"       ,   1,         0.0,         0.0,         0.0,         0.0,         0.0,         0.0
"Line.L_65590824"       ,   2,        -0.0,        -0.0
"Line.L_BSB_MT_7215_1"  ,   1,        20.9,         9.5,         0.0,         0.0,         0.0,         0.0
"Line.L_BSB_MT_7215_1"  ,   2,       -20.9,        -9.5
"Line.L_BSB_MT_7215_2"  ,   1,        20.9,         9.5,         0.0,         0.0,         0.0,         0.0
"Line.L_BSB_MT_7215_2"  ,   2,       -20.9,        -9.5
"Line.L_TR_MT_ALIM12"   ,   1,       -28.7,       -13.0,         0.0,         0.0,         0.0,         0.0
"Line.L_TR_MT_ALIM12"   ,   2,        28.7,        13.0
"Line.L_TR_MT_ALIM13"   ,   1,        45.2,        20.4,         0.0,         0.0,         0.0,         0.0
"Line.L_TR_MT_ALIM13"   ,   2,       -45.2,       -20.4
"Line.L_TR_MT_ALIM14"   ,   1,        34.0,        15.4,         0.0,         0.0,         0.0,         0.0
"Line.L_TR_MT_ALIM14"   ,   2,       -34.0,       -15.4
"Line.L_TR_MT_ALIM55"   ,   1,         0.0,         0.0,         0.0,         0.0,         0.0,         0.0
"Line.L_TR_MT_ALIM55"   ,   2,        -0.0,        -0.0
"Line.L_BSB_MT_4610"    ,   1,      1541.7,       704.0,         0.0,         0.0,         0.0,         0.0
"Line.L_BSB_MT_4610"    ,   2,     -1541.6,      -704.0
"Line.L_BSB_MT_4611"    ,   1,      1583.5,       723.0,         0.0,         0.0,         0.0,         0.0
"Line.L_BSB_MT_4611"    ,   2,     -1583.5,      -723.0
"Line.L_BSB_MT_4612"    ,   1,     -1713.0,      -786.1,         0.0,         0.0,         0.0,         0.0
"Line.L_BSB_MT_4612"    ,   2,      1713.1,       786.1
"Line.L_BSB_MT_4616"    ,   1,       -87.8,       -39.7,         0.0,         0.0,         0.0,         0.0
"Line.L_BSB_MT_4616"    ,   2,        87.8,        39.7
"Line.L_BSB_MT_4838"    ,   1,        11.1,         5.0,         0.0,         0.0,         0.0,         0.0
"Line.L_BSB_MT_4838"    ,   2,       -11.1,        -5.0
"Line.SW_FM1277_DP_9571",   1,        -0.0,        -0.0,         0.0,         0.0,         0.0,         0.0
"Line.SW_FM1277_DP_9571",   2,         0.0,         0.0
"Line.SW_FP0026"        ,   1,         0.0,        -0.0,         0.0,         0.0,         0.0,         0.0
"Line.SW_FP0026"        ,   2,        -0.0,         0.0
"Line.SW_FIC3622"       ,   1,         0.0,        -0.0,         0.0,         0.0,         0.0,         0.0
"Line.SW_FIC3622"       ,   2,        -0.0,         0.0
"Line.SW_FK0206"        ,   1,         0.0,        -0.0,         0.0,         0.0,         0.0,         0.0
"Line.SW_FK0206"        ,   2,        -0.0,         0.0
"Line.SW_FW9172"        ,   1,       243.9,       116.3,         0.0,         0.0,         0.0,         0.0
"Line.SW_FW9172"        ,   2,      -243.9,      -116.3
"Line.SW_FK0262"        ,   1,        -0.0,        -0.0,         0.0,         0.0,         0.0,         0.0
"Line.SW_FK0262"        ,   2,        -0.0,        -0.0
"Line.SW_FW0342"        ,   1,      -848.0,      -395.6,         0.0,         0.0,         0.0,         0.0
"Line.SW_FW0342"        ,   2,       848.0,       395.6
"Line.SW_FP7950"        ,   1,         0.0,        -0.0,         0.0,         0.0,         0.0,         0.0
"Line.SW_FP7950"        ,   2,        -0.0,         0.0
"Line.SW_FW0514"        ,   1,       432.0,       201.4,         0.0,         0.0,         0.0,         0.0
"Line.SW_FW0514"        ,   2,      -432.0,      -201.4
"Line.SW_FW0289"        ,   1,       -25.1,       -11.3,         0.0,         0.0,         0.0,         0.0
"Line.SW_FW0289"        ,   2,        25.1,        11.3
"Line.SW_FW0288"        ,   1,        -0.0,        -0.0,         0.0,         0.0,         0.0,         0.0
"Line.SW_FW0288"        ,   2,         0.0,         0.0
"Line.SW_FP7288_DP_8083",   1,      -451.0,      -216.0,         0.0,         0.0,         0.0,         0.0
"Line.SW_FP7288_DP_8083",   2,       451.0,       216.0
"Line.SW_FW0285"        ,   1,        -0.0,        -0.0,         0.0,         0.0,         0.0,         0.0
"Line.SW_FW0285"        ,   2,         0.0,        -0.0
"Line.SW_FW2722"        ,   1,      -215.5,       -96.7,         0.0,         0.0,         0.0,         0.0
"Line.SW_FW2722"        ,   2,       215.5,        96.7
"Line.SW_FW6553"        ,   1,       223.4,       101.8,         0.0,         0.0,         0.0,         0.0
"Line.SW_FW6553"        ,   2,      -223.4,      -101.8
"Line.SW_FZ2779"        ,   1,         0.0,        -0.0,         0.0,         0.0,         0.0,         0.0
"Line.SW_FZ2779"        ,   2,        -0.0,         0.0
"Line.SW_FZ4654"        ,   1,        -0.0,        -0.0,         0.0,         0.0,         0.0,         0.0
"Line.SW_FZ4654"        ,   2,         0.0,        -0.0
"Line.SW_FIC2643"       ,   1,       -14.3,        -6.5,         0.0,         0.0,         0.0,         0.0
"Line.SW_FIC2643"       ,   2,        14.3,         6.5
"Line.SW_FP3882"        ,   1,        -0.0,        -0.0,         0.0,         0.0,         0.0,         0.0
"Line.SW_FP3882"        ,   2,         0.0,        -0.0
"Line.SW_FW0019"        ,   1,         0.0,        -0.0,         0.0,         0.0,         0.0,         0.0
"Line.SW_FW0019"        ,   2,         0.0,         0.0
"Line.SW_FW9401"        ,   1,       -20.9,        -9.5,         0.0,         0.0,         0.0,         0.0
"Line.SW_FW9401"        ,   2,        20.9,         9.5
"Line.SW_FF0995"        ,   1,      -341.3,      -154.4,         0.0,         0.0,         0.0,         0.0
"Line.SW_FF0995"        ,   2,       341.3,       154.4
"Line.SW_FU0492"        ,   1,      -217.3,       -98.3,         0.0,         0.0,         0.0,         0.0
"Line.SW_FU0492"        ,   2,       217.3,        98.3
"Line.SW_FW9565"        ,   1,      -131.9,       -58.9,         0.0,         0.0,         0.0,         0.0
"Line.SW_FW9565"        ,   2,       131.9,        58.9
"Line.SW_FU1827"        ,   1,      -112.8,       -51.0,         0.0,         0.0,         0.0,         0.0
"Line.SW_FU1827"        ,   2,       112.8,        51.0
"Line.SW_FW9846"        ,   1,         0.0,        -0.0,         0.0,         0.0,         0.0,         0.0
"Line.SW_FW9846"        ,   2,         0.0,         0.0
"Line.SW_FW1252"        ,   1,       432.0,       201.4,         0.0,         0.0,         0.0,         0.0
"Line.SW_FW1252"        ,   2,      -432.0,      -201.4
"Line.SW_FT9912"        ,   1,         0.0,        -0.0,         0.0,         0.0,         0.0,         0.0
"Line.SW_FT9912"        ,   2,        -0.0,         0.0
"Line.SW_FX4588"        ,   1,       139.4,        69.0,         0.0,         0.0,         0.0,         0.0
"Line.SW_FX4588"        ,   2,      -139.4,       -69.0
"Line.SW_FA0627"        ,   1,        35.3,        16.7,         0.0,         0.0,         0.0,         0.0
"Line.SW_FA0627"        ,   2,       -35.3,       -16.7
"Line.SW_FT9958"        ,   1,      -382.7,      -172.3,         0.0,         0.0,         0.0,         0.0
"Line.SW_FT9958"        ,   2,       382.7,       172.3
"Line.SW_FT9962"        ,   1,        35.3,        16.7,         0.0,         0.0,         0.0,         0.0
"Line.SW_FT9962"        ,   2,       -35.3,       -16.7
"Line.SW_FT9952"        ,   1,        -0.0,        -0.0,         0.0,         0.0,         0.0,         0.0
"Line.SW_FT9952"        ,   2,         0.0,         0.0
"Line.SW_FA0623"        ,   1,       202.1,        97.4,         0.0,         0.0,         0.0,         0.0
"Line.SW_FA0623"        ,   2,      -202.1,       -97.4
"Line.SW_FA0625"        ,   1,        -0.0,        -0.0,         0.0,         0.0,         0.0,         0.0
"Line.SW_FA0625"        ,   2,         0.0,         0.0
"Line.SW_FW6685"        ,   1,        -0.0,        -0.0,         0.0,         0.0,         0.0,         0.0
"Line.SW_FW6685"        ,   2,         0.0,        -0.0
"Line.SW_FT9953"        ,   1,        -0.0,        -0.0,         0.0,         0.0,         0.0,         0.0
"Line.SW_FT9953"        ,   2,        -0.0,         0.0
"Line.SW_FU0493"        ,   1,      -124.0,       -56.1,         0.0,         0.0,         0.0,         0.0
"Line.SW_FU0493"        ,   2,       124.0,        56.1
"Line.SW_FT9955"        ,   1,         0.0,        -0.0,         0.0,         0.0,         0.0,         0.0
"Line.SW_FT9955"        ,   2,         0.0,         0.0
"Line.SW_FT9964"        ,   1,        98.0,        45.1,         0.0,         0.0,         0.0,         0.0
"Line.SW_FT9964"        ,   2,       -98.0,       -45.1
"Line.SW_FA0622"        ,   1,         0.0,        -0.0,         0.0,         0.0,         0.0,         0.0
"Line.SW_FA0622"        ,   2,         0.0,         0.0
"Line.SW_FA9278"        ,   1,      -307.0,      -139.6,         0.0,         0.0,         0.0,         0.0
"Line.SW_FA9278"        ,   2,       307.0,       139.6
"Line.SW_FA0629"        ,   1,      1671.1,       767.1,         0.0,         0.0,         0.0,         0.0
"Line.SW_FA0629"        ,   2,     -1671.1,      -767.1
"Line.SW_FW1130"        ,   1,        -0.0,        -0.0,         0.0,         0.0,         0.0,         0.0
"Line.SW_FW1130"        ,   2,         0.0,        -0.0
"Line.SW_NW11_SNW"      ,   1,         0.0,         0.0,         0.0,         0.0,         0.0,         0.0
"Line.SW_NW11_SNW"      ,   2,         0.0,        -0.0
"Line.SW_FA0624"        ,   1,        -0.0,        -0.0,         0.0,         0.0,         0.0,         0.0
"Line.SW_FA0624"        ,   2,         0.0,         0.0
"Line.SW_FT9969"        ,   1,        -0.0,        -0.0,         0.0,         0.0,         0.0,         0.0
"Line.SW_FT9969"        ,   2,         0.0,        -0.0
"Line.SW_FIC2693"       ,   1,        -8.4,        -3.8,         0.0,         0.0,         0.0,         0.0
"Line.SW_FIC2693"       ,   2,         8.4,         3.8
"Line.SW_FP7804"        ,   1,     -1583.5,      -723.0,         0.0,         0.0,         0.0,         0.0
"Line.SW_FP7804"        ,   2,      1583.5,       723.0
"Line.SW_FT9913"        ,   1,        -0.0,        -0.0,         0.0,         0.0,         0.0,         0.0
"Line.SW_FT9913"        ,   2,         0.0,         0.0
"Line.SW_FA0631"        ,   1,      -993.9,      -456.3,         0.0,         0.0,         0.0,         0.0
"Line.SW_FA0631"        ,   2,       993.9,       456.3
"Line.SW_FA7439"        ,   1,       -14.3,        -6.5,         0.0,         0.0,         0.0,         0.0
"Line.SW_FA7439"        ,   2,        14.3,         6.5
"Line.SW_FA0538"        ,   1,         0.0,        -0.0,         0.0,         0.0,         0.0,         0.0
"Line.SW_FA0538"        ,   2,        -0.0,         0.0
"Line.SW_FA9481"        ,   1,         0.0,        -0.0,         0.0,         0.0,         0.0,         0.0
"Line.SW_FA9481"        ,   2,        -0.0,         0.0
"Line.SW_FW0023"        ,   1,     -1541.6,      -704.0,         0.0,         0.0,         0.0,         0.0
"Line.SW_FW0023"        ,   2,      1541.6,       704.0
"Line.SW_FW0293"        ,   1,       -87.8,       -39.7,         0.0,         0.0,         0.0,         0.0
"Line.SW_FW0293"        ,   2,        87.8,        39.7
"Line.SW_FA8693"        ,   1,       440.3,       199.1,         0.0,         0.0,         0.0,         0.0
"Line.SW_FA8693"        ,   2,      -440.3,      -199.1
"Line.SW_FA0128"        ,   1,         0.0,        -0.0,         0.0,         0.0,         0.0,         0.0
"Line.SW_FA0128"        ,   2,        -0.0,         0.0
"Line.SW_FA7481"        ,   1,      -366.4,      -165.7,         0.0,         0.0,         0.0,         0.0
"Line.SW_FA7481"        ,   2,       366.4,       165.7
"Line.SW_FX2521"        ,   1,         0.0,         0.0,         0.0,         0.0,         0.0,         0.0
"Line.SW_FX2521"        ,   2,         0.0,        -0.0
"Line.SW_FZ0762"        ,   1,         0.0,        -0.0,         0.0,         0.0,         0.0,         0.0
"Line.SW_FZ0762"        ,   2,         0.0,         0.0
"Line.SW_FT9968"        ,   1,        -0.0,        -0.0,         0.0,         0.0,         0.0,         0.0
"Line.SW_FT9968"        ,   2,         0.0,         0.0
"Line.SW_FW8882"        ,   1,     -1432.9,      -654.8,         0.0,         0.0,         0.0,         0.0
"Line.SW_FW8882"        ,   2,      1432.9,       654.8
"Line.SW_FW6978"        ,   1,      1838.7,       842.9,         0.0,         0.0,         0.0,         0.0
"Line.SW_FW6978"        ,   2,     -1838.7,      -842.9
"Line.SW_FA0539"        ,   1,       -20.9,        -9.5,         0.0,         0.0,         0.0,         0.0
"Line.SW_FA0539"        ,   2,        20.9,         9.5
"Line.SW_FU1825"        ,   1,     -1223.8,      -560.3,         0.0,         0.0,         0.0,         0.0
"Line.SW_FU1825"        ,   2,      1223.8,       560.3
"Line.SW_FP3480"        ,   1,      -382.7,      -172.3,         0.0,         0.0,         0.0,         0.0
"Line.SW_FP3480"        ,   2,       382.7,       172.3
"Line.SW_FA0630"        ,   1,     -1541.7,      -704.0,         0.0,         0.0,         0.0,         0.0
"Line.SW_FA0630"        ,   2,      1541.7,       704.0
"Line.SW_RE1072_RL"     ,   1,       122.1,        55.2,         0.0,         0.0,         0.0,         0.0
"Line.SW_RE1072_RL"     ,   2,      -122.1,       -55.2
"Line.SW_RE1185_RL"     ,   1,      -349.7,      -158.2,         0.0,         0.0,         0.0,         0.0
"Line.SW_RE1185_RL"     ,   2,       349.7,       158.2
"Line.SW_FA1072BF"      ,   1,       122.1,        55.2,         0.0,         0.0,         0.0,         0.0
"Line.SW_FA1072BF"      ,   2,      -122.1,       -55.2
"Line.SW_FA1072B"       ,   1,       122.1,        55.2,         0.0,         0.0,         0.0,         0.0
"Line.SW_FA1072B"       ,   2,      -122.1,       -55.2
"Transformer.T_FP8852"  ,   1,       125.4,        56.7,         0.0,         0.0,         0.0,         0.0
"Transformer.T_FP8852"  ,   2,      -124.2,       -52.9
"Transformer.T_FT9916"  ,   1,        41.8,        18.9,         0.0,         0.0,         0.0,         0.0
"Transformer.T_FT9916"  ,   2,       -41.4,       -17.6
"Transformer.T_FT9962"  ,   1,        62.7,        28.4,         0.0,         0.0,         0.0,         0.0
"Transformer.T_FT9962"  ,   2,       -62.1,       -26.5
"Transformer.T_FT9966"  ,   1,        41.8,        18.9,         0.0,         0.0,         0.0,         0.0
"Transformer.T_FT9966"  ,   2,       -41.4,       -17.6
"Transformer.T_FT9970"  ,   1,        41.8,        18.9,         0.0,         0.0,         0.0,         0.0
"Transformer.T_FT9970"  ,   2,       -41.4,       -17.6
"Transformer.T_FT9964"  ,   1,        62.7,        28.4,         0.0,         0.0,         0.0,         0.0
"Transformer.T_FT9964"  ,   2,       -62.1,       -26.5
"Transformer.T_FT6333"  ,   1,        16.7,         7.6,         0.0,         0.0,         0.0,         0.0
"Transformer.T_FT6333"  ,   2,       -16.6,        -7.1
"Transformer.T_FT9967"  ,   1,       125.4,        56.7,         0.0,         0.0,         0.0,         0.0
"Transformer.T_FT9967"  ,   2,      -124.2,       -52.9
"Transformer.T_FT9961"  ,   1,        41.8,        18.9,         0.0,         0.0,         0.0,         0.0
"Transformer.T_FT9961"  ,   2,       -41.4,       -17.6
"Transformer.T_FP7529"  ,   1,       125.4,        56.7,         0.0,         0.0,         0.0,         0.0
"Transformer.T_FP7529"  ,   2,      -124.2,       -52.9
"Transformer.T_FT9968"  ,   1,        41.8,        18.9,         0.0,         0.0,         0.0,         0.0
"Transformer.T_FT9968"  ,   2,       -41.4,       -17.6
"Transformer.T_FT9951"  ,   1,        41.8,        18.9,         0.0,         0.0,         0.0,         0.0
"Transformer.T_FT9951"  ,   2,       -41.4,       -17.6
"Transformer.T_FT9952"  ,   1,        41.8,        18.9,         0.0,         0.0,         0.0,         0.0
"Transformer.T_FT9952"  ,   2,       -41.4,       -17.6
"Transformer.T_FT9955"  ,   1,        41.8,        18.9,         0.0,         0.0,         0.0,         0.0
"Transformer.T_FT9955"  ,   2,       -41.4,       -17.6
"Transformer.T_FT0078"  ,   1,         8.4,         3.8,         0.0,         0.0,         0.0,         0.0
"Transformer.T_FT0078"  ,   2,        -8.3,        -3.5
"Transformer.T_FT9969"  ,   1,        83.6,        37.8,         0.0,         0.0,         0.0,         0.0
"Transformer.T_FT9969"  ,   2,       -82.8,       -35.3
"Transformer.T_FT9959"  ,   1,       125.4,        56.7,         0.0,         0.0,         0.0,         0.0
"Transformer.T_FT9959"  ,   2,      -124.2,       -52.9
"Transformer.T_FT9971"  ,   1,        41.8,        18.9,         0.0,         0.0,         0.0,         0.0
"Transformer.T_FT9971"  ,   2,       -41.4,       -17.6
"Transformer.T_FT9914"  ,   1,        41.8,        18.9,         0.0,         0.0,         0.0,         0.0
"Transformer.T_FT9914"  ,   2,       -41.4,       -17.6
"Transformer.T_FT9958"  ,   1,        41.8,        18.9,         0.0,         0.0,         0.0,         0.0
"Transformer.T_FT9958"  ,   2,       -41.4,       -17.6
"Transformer.T_FP8048"  ,   1,        62.7,        28.4,         0.0,         0.0,         0.0,         0.0
"Transformer.T_FP8048"  ,   2,       -62.1,       -26.5
"Transformer.T_FT9913"  ,   1,        41.8,        18.9,         0.0,         0.0,         0.0,         0.0
"Transformer.T_FT9913"  ,   2,       -41.4,       -17.6
"Transformer.T_FP3368"  ,   1,        41.8,        18.9,         0.0,         0.0,         0.0,         0.0
"Transformer.T_FP3368"  ,   2,       -41.4,       -17.6
"Transformer.T_FP3369"  ,   1,         8.4,         3.8,         0.0,         0.0,         0.0,         0.0
"Transformer.T_FP3369"  ,   2,        -8.3,        -3.5
"Transformer.T_FT9915"  ,   1,        11.1,         5.0,         0.0,         0.0,         0.0,         0.0
"Transformer.T_FT9915"  ,   2,       -11.0,        -4.7
"Transformer.T_FZ2779"  ,   1,        62.7,        28.4,         0.0,         0.0,         0.0,         0.0
"Transformer.T_FZ2779"  ,   2,       -62.1,       -26.5
"Transformer.T_FZ1420"  ,   1,        20.9,         9.5,         0.0,         0.0,         0.0,         0.0
"Transformer.T_FZ1420"  ,   2,       -20.7,        -8.8
"Transformer.T_FP8190"  ,   1,       125.4,        56.7,         0.0,         0.0,         0.0,         0.0
"Transformer.T_FP8190"  ,   2,      -124.2,       -52.9
"Transformer.T_FP5667"  ,   1,        83.6,        37.8,         0.0,         0.0,         0.0,         0.0
"Transformer.T_FP5667"  ,   2,       -82.8,       -35.3
"Transformer.T_FX4456"  ,   1,        11.1,         5.0,         0.0,         0.0,         0.0,         0.0
"Transformer.T_FX4456"  ,   2,       -11.0,        -4.7
"Transformer.T_FP8653"  ,   1,       167.2,        75.6,         0.0,         0.0,         0.0,         0.0
"Transformer.T_FP8653"  ,   2,      -165.6,       -70.5
"Transformer.T_FT9953"  ,   1,        41.8,        18.9,         0.0,         0.0,         0.0,         0.0
"Transformer.T_FT9953"  ,   2,       -41.4,       -17.6
"Transformer.T_FT9912"  ,   1,        41.8,        18.9,         0.0,         0.0,         0.0,         0.0
"Transformer.T_FT9912"  ,   2,       -41.4,       -17.6
"Transformer.T_FZ0762"  ,   1,        62.7,        28.4,         0.0,         0.0,         0.0,         0.0
"Transformer.T_FZ0762"  ,   2,       -62.1,       -26.5
"Transformer.T_FT9957"  ,   1,        41.8,        18.9,         0.0,         0.0,         0.0,         0.0
"Transformer.T_FT9957"  ,   2,       -41.4,       -17.6
"Transformer.T_FT9972"  ,   1,        62.7,        28.4,         0.0,         0.0,         0.0,         0.0
"Transformer.T_FT9972"  ,   2,       -62.1,       -26.5
"Transformer.T_FT9911"  ,   1,        41.8,        18.9,         0.0,         0.0,         0.0,         0.0
"Transformer.T_FT9911"  ,   2,       -41.4,       -17.6
"Transformer.T_FP7718"  ,   1,       125.4,        56.7,         0.0,         0.0,         0.0,         0.0
"Transformer.T_FP7718"  ,   2,      -124.2,       -52.9
"Transformer.T_FT9965"  ,   1,        62.7,        28.4,         0.0,         0.0,         0.0,         0.0
"Transformer.T_FT9965"  ,   2,       -62.1,       -26.5
"Transformer.T_FP0028"  ,   1,        25.1,        11.3,         0.0,         0.0,         0.0,         0.0
"Transformer.T_FP0028"  ,   2,       -24.8,       -10.6
"Transformer.T_FP8063"  ,   1,       167.2,        75.6,         0.0,         0.0,         0.0,         0.0
"Transformer.T_FP8063"  ,   2,      -165.6,       -70.5
"Transformer.T_FP7950"  ,   1,        83.6,        37.8,         0.0,         0.0,         0.0,         0.0
"Transformer.T_FP7950"  ,   2,       -82.8,       -35.3
"Transformer.T_FP4125"  ,   1,        83.6,        37.8,         0.0,         0.0,         0.0,         0.0
"Transformer.T_FP4125"  ,   2,       -82.8,       -35.3
"Transformer.T_FP3450"  ,   1,       125.4,        56.7,         0.0,         0.0,         0.0,         0.0
"Transformer.T_FP3450"  ,   2,      -124.2,       -52.9
"Transformer.T_FP7288"  ,   1,       423.2,       209.4,       127.9,        63.3,        20.5,        10.2
"Transformer.T_FP7288"  ,   2,      -412.8,      -175.8
"Transformer.T_FP3387"  ,   1,        25.1,        11.3,         0.0,         0.0,         0.0,         0.0
"Transformer.T_FP3387"  ,   2,       -24.8,       -10.6
"Transformer.T_FF2999"  ,   1,        62.7,        28.4,         0.0,         0.0,         0.0,         0.0
"Transformer.T_FF2999"  ,   2,       -62.1,       -26.5
"Transformer.T_FP3388"  ,   1,        62.7,        28.4,         0.0,         0.0,         0.0,         0.0
"Transformer.T_FP3388"  ,   2,       -62.1,       -26.5
"Transformer.T_FP4470"  ,   1,       125.4,        56.7,         0.0,         0.0,         0.0,         0.0
"Transformer.T_FP4470"  ,   2,      -124.2,       -52.9
"Transformer.T_FT0077"  ,   1,         8.4,         3.8,         0.0,         0.0,         0.0,         0.0
"Transformer.T_FT0077"  ,   2,        -8.3,        -3.5
"Transformer.T_FT9910"  ,   1,        41.8,        18.9,         0.0,         0.0,         0.0,         0.0
"Transformer.T_FT9910"  ,   2,       -41.4,       -17.6
"Load.L_FP8852"         ,   1,       124.2,        52.9
"Load.L_FT9916"         ,   1,        41.4,        17.6
"Load.L_FT9962"         ,   1,        62.1,        26.5
"Load.L_FT9966"         ,   1,        41.4,        17.6
"Load.L_FT9970"         ,   1,        41.4,        17.6
"Load.L_FT9964"         ,   1,        62.1,        26.5
"Load.L_FT6333"         ,   1,        16.6,         7.1
"Load.L_FT9967"         ,   1,       124.2,        52.9
"Load.L_FT9961"         ,   1,        41.4,        17.6
"Load.L_FP7529"         ,   1,       124.2,        52.9
"Load.L_FT9968"         ,   1,        41.4,        17.6
"Load.L_FT9951"         ,   1,        41.4,        17.6
"Load.L_FT9952"         ,   1,        41.4,        17.6
"Load.L_FT9955"         ,   1,        41.4,        17.6
"Load.L_FT0078"         ,   1,         8.3,         3.5
"Load.L_FT9969"         ,   1,        82.8,        35.3
"Load.L_FT9959"         ,   1,       124.2,        52.9
"Load.L_FT9971"         ,   1,        41.4,        17.6
"Load.L_FT9914"         ,   1,        41.4,        17.6
"Load.L_FT9958"         ,   1,        41.4,        17.6
"Load.L_FP8048"         ,   1,        62.1,        26.5
"Load.L_FT9913"         ,   1,        41.4,        17.6
"Load.L_FP3368"         ,   1,        41.4,        17.6
"Load.L_FP3369"         ,   1,         8.3,         3.5
"Load.L_FT9915"         ,   1,        11.0,         4.7
"Load.L_FZ2779"         ,   1,        62.1,        26.5
"Load.L_FZ1420"         ,   1,        20.7,         8.8
"Load.L_FP8190"         ,   1,       124.2,        52.9
"Load.L_FP5667"         ,   1,        82.8,        35.3
"Load.L_FX4456"         ,   1,        11.0,         4.7
"Load.L_FP8653"         ,   1,       165.6,        70.5
"Load.L_FT9953"         ,   1,        41.4,        17.6
"Load.L_FT9912"         ,   1,        41.4,        17.6
"Load.L_FZ0762"         ,   1,        62.1,        26.5
"Load.L_FT9957"         ,   1,        41.4,        17.6
"Load.L_FT9972"         ,   1,        62.1,        26.5
"Load.L_FT9911"         ,   1,        41.4,        17.6
"Load.L_FP7718"         ,   1,       124.2,        52.9
"Load.L_FT9965"         ,   1,        62.1,        26.5
"Load.L_FP0028"         ,   1,        24.8,        10.6
"Load.L_FP8063"         ,   1,       165.6,        70.5
"Load.L_FP7950"         ,   1,        82.8,        35.3
"Load.L_FP4125"         ,   1,        82.8,        35.3
"Load.L_FP3450"         ,   1,       124.2,        52.9
"Load.L_FP7288"         ,   1,       412.8,       175.8
"Load.L_FP3387"         ,   1,        24.8,        10.6
"Load.L_FF2999"         ,   1,        62.1,        26.5
"Load.L_FP3388"         ,   1,        62.1,        26.5
"Load.L_FP4470"         ,   1,       124.2,        52.9
"Load.L_FT0077"         ,   1,         8.3,         3.5
"Load.L_FT9910"         ,   1,        41.4,        17.6
